<?xml version="1.0" encoding="UTF-8"?>

<!-- generated on 2026-06-02T14:17:26.305398+12:00 by Eclipse SUMO netconvert 1.26.0
<netconvertConfiguration xmlns:xsi="http://www.w3.org/2001/XMLSchema-instance" xsi:noNamespaceSchemaLocation="http://sumo.dlr.de/xsd/netconvertConfiguration.xsd">

    <input>
        <osm-files value="helensville_route128_visual.osm"/>
    </input>

    <output>
        <output-file value="helensville_route128_visual.net.xml"/>
    </output>

    <projection>
        <proj.utm value="true"/>
    </projection>

    <processing>
        <lefthand value="true"/>
    </processing>

</netconvertConfiguration>
-->

<net version="1.20" junctionCornerDetail="5" lefthand="true" limitTurnSpeed="5.50" xmlns:xsi="http://www.w3.org/2001/XMLSchema-instance" xsi:noNamespaceSchemaLocation="http://sumo.dlr.de/xsd/net_file.xsd">

    <location netOffset="-271750.83,4063644.59" convBoundary="0.00,-0.00,877.16,1977.30" origBoundary="174.383197,-36.751109,174.462880,-36.579936" projParameter="+proj=utm +zone=60 +ellps=WGS84 +datum=WGS84 +units=m +no_defs"/>

    <type id="highway.footway" priority="1" numLanes="1" speed="2.78" allow="pedestrian" oneway="1" width="2.00"/>
    <type id="highway.path" priority="1" numLanes="1" speed="5.56" allow="pedestrian bicycle" oneway="0" width="2.00"/>
    <type id="highway.primary" priority="12" numLanes="2" speed="27.78" disallow="tram rail_urban rail rail_electric rail_fast ship container cable_car subway aircraft wheelchair scooter drone" oneway="0"/>
    <type id="highway.residential" priority="3" numLanes="1" speed="13.89" disallow="tram rail_urban rail rail_electric rail_fast ship container cable_car subway aircraft wheelchair scooter drone" oneway="0"/>
    <type id="highway.service" priority="1" numLanes="1" speed="5.56" allow="pedestrian delivery bicycle" oneway="0"/>
    <type id="highway.steps" priority="1" numLanes="1" speed="1.39" allow="pedestrian" oneway="1" width="2.00"/>
    <type id="highway.tertiary" priority="10" numLanes="1" speed="22.22" disallow="tram rail_urban rail rail_electric rail_fast ship container cable_car subway aircraft wheelchair scooter drone" oneway="0"/>
    <type id="railway.rail" priority="20" numLanes="1" speed="44.44" allow="rail" oneway="1"/>

    <edge id=":11092816228_0" function="internal">
        <lane id=":11092816228_0_0" index="0" disallow="tram rail_urban rail rail_electric rail_fast ship container cable_car subway aircraft wheelchair scooter drone" speed="3.65" length="4.67" shape="421.66,1854.51 420.33,1853.95 419.44,1854.05 418.99,1854.83 418.98,1856.27"/>
    </edge>
    <edge id=":13398781617_0" function="internal">
        <lane id=":13398781617_0_0" index="0" allow="pedestrian delivery bicycle" speed="3.65" length="4.67" shape="396.59,1535.18 395.76,1534.00 394.95,1533.62 394.16,1534.04 393.39,1535.26"/>
    </edge>
    <edge id=":13398781621_0" function="internal">
        <lane id=":13398781621_0_0" index="0" allow="pedestrian delivery bicycle" speed="5.56" length="9.39" shape="397.15,1558.58 396.93,1549.20"/>
    </edge>
    <edge id=":13398781621_1" function="internal">
        <lane id=":13398781621_1_0" index="0" allow="pedestrian delivery bicycle" speed="5.56" length="10.18" shape="397.15,1558.58 396.70,1555.83 395.48,1553.90 393.47,1552.77 390.69,1552.45"/>
    </edge>
    <edge id=":13398781621_2" function="internal">
        <lane id=":13398781621_2_0" index="0" allow="pedestrian delivery bicycle" speed="3.65" length="4.67" shape="397.15,1558.58 396.31,1557.40 395.50,1557.02 394.72,1557.44 393.95,1558.67"/>
    </edge>
    <edge id=":13398781621_3" function="internal">
        <lane id=":13398781621_3_0" index="0" allow="pedestrian delivery bicycle" speed="5.01" length="4.97" shape="390.81,1555.65 392.16,1555.81 393.14,1556.36 393.73,1557.31 393.95,1558.67"/>
    </edge>
    <edge id=":13398781621_4" function="internal">
        <lane id=":13398781621_4_0" index="0" allow="pedestrian delivery bicycle" speed="5.56" length="10.13" shape="390.81,1555.65 393.54,1555.18 395.47,1553.95 396.60,1551.95 396.93,1549.20"/>
    </edge>
    <edge id=":13398781621_5" function="internal">
        <lane id=":13398781621_5_0" index="0" allow="pedestrian delivery bicycle" speed="3.65" length="4.67" shape="390.81,1555.65 391.98,1554.81 392.35,1553.99 391.92,1553.21 390.69,1552.45"/>
    </edge>
    <edge id=":13398781621_6" function="internal">
        <lane id=":13398781621_6_0" index="0" allow="pedestrian delivery bicycle" speed="5.05" length="5.01" shape="393.73,1549.27 393.57,1550.63 393.00,1551.61 392.04,1552.22 390.69,1552.45"/>
    </edge>
    <edge id=":13398781621_7" function="internal">
        <lane id=":13398781621_7_0" index="0" allow="pedestrian delivery bicycle" speed="5.56" length="9.40" shape="393.73,1549.27 393.95,1558.67"/>
    </edge>
    <edge id=":13398781621_8" function="internal">
        <lane id=":13398781621_8_0" index="0" allow="pedestrian delivery bicycle" speed="3.65" length="4.67" shape="393.73,1549.27 394.56,1550.45 395.37,1550.83 396.16,1550.42 396.93,1549.20"/>
    </edge>
    <edge id=":13398781622_0" function="internal">
        <lane id=":13398781622_0_0" index="0" allow="pedestrian delivery bicycle" speed="5.56" length="6.52" shape="390.59,1552.46 388.45,1552.35 386.84,1551.87 385.74,1551.04 385.17,1549.85"/>
    </edge>
    <edge id=":13398781622_1" function="internal">
        <lane id=":13398781622_1_0" index="0" allow="pedestrian delivery bicycle" speed="5.56" length="12.18" shape="390.59,1552.46 387.10,1553.05 385.08,1554.59 384.51,1557.08 385.39,1560.51"/>
    </edge>
    <edge id=":13398781622_2" function="internal">
        <lane id=":13398781622_2_0" index="0" allow="pedestrian delivery bicycle" speed="3.65" length="4.67" shape="390.59,1552.46 389.42,1553.30 389.05,1554.12 389.48,1554.90 390.71,1555.66"/>
    </edge>
    <edge id=":13398781622_3" function="internal">
        <lane id=":13398781622_3_0" index="0" allow="pedestrian delivery bicycle" speed="4.75" length="5.51" shape="388.35,1559.29 387.95,1557.74 388.21,1556.62 389.13,1555.92 390.71,1555.66"/>
    </edge>
    <edge id=":13398781622_4" function="internal">
        <lane id=":13398781622_4_0" index="0" allow="pedestrian delivery bicycle" speed="5.56" length="9.98" shape="388.35,1559.29 387.21,1556.56 386.46,1554.67 385.87,1552.73 385.17,1549.85"/>
    </edge>
    <edge id=":13398781622_5" function="internal">
        <lane id=":13398781622_5_0" index="0" allow="pedestrian delivery bicycle" speed="3.65" length="4.67" shape="388.35,1559.29 387.15,1558.49 386.26,1558.42 385.67,1559.10 385.39,1560.51"/>
    </edge>
    <edge id=":13398781622_6" function="internal">
        <lane id=":13398781622_6_0" index="0" allow="pedestrian delivery bicycle" speed="5.56" length="10.51" shape="382.05,1550.57 382.77,1553.53 383.42,1555.64 384.22,1557.69 385.39,1560.51"/>
    </edge>
    <edge id=":13398781622_7" function="internal">
        <lane id=":13398781622_7_0" index="0" allow="pedestrian delivery bicycle" speed="5.56" length="10.97" shape="382.05,1550.57 383.04,1552.87 384.82,1554.49 387.38,1555.42 390.71,1555.66"/>
    </edge>
    <edge id=":13398781622_8" function="internal">
        <lane id=":13398781622_8_0" index="0" allow="pedestrian delivery bicycle" speed="3.65" length="4.67" shape="382.05,1550.57 383.10,1551.56 383.96,1551.77 384.65,1551.20 385.17,1549.85"/>
    </edge>
    <edge id=":13398781623_0" function="internal">
        <lane id=":13398781623_0_0" index="0" allow="pedestrian delivery bicycle" speed="3.65" length="4.67" shape="382.00,1536.08 380.95,1535.09 380.08,1534.88 379.39,1535.45 378.88,1536.80"/>
    </edge>
    <edge id=":13398781624_0" function="internal">
        <lane id=":13398781624_0_0" index="0" allow="pedestrian delivery bicycle" speed="3.65" length="4.67" shape="387.38,1565.35 388.58,1566.15 389.47,1566.22 390.06,1565.54 390.34,1564.13"/>
    </edge>
    <edge id=":13398781632_0" function="internal">
        <lane id=":13398781632_0_0" index="0" allow="pedestrian delivery bicycle" speed="5.56" length="5.06" shape="402.27,1625.37 401.66,1620.35"/>
    </edge>
    <edge id=":13398781632_1" function="internal">
        <lane id=":13398781632_1_0" index="0" allow="pedestrian delivery bicycle" speed="3.65" length="1.44" shape="402.27,1625.37 401.32,1624.29"/>
    </edge>
    <edge id=":13398781632_4" function="internal">
        <lane id=":13398781632_4_0" index="0" allow="pedestrian delivery bicycle" speed="3.65" length="3.23" shape="401.32,1624.29 400.47,1624.01 399.73,1624.51 399.10,1625.81"/>
    </edge>
    <edge id=":13398781632_2" function="internal">
        <lane id=":13398781632_2_0" index="0" allow="pedestrian delivery bicycle" speed="5.56" length="5.07" shape="398.49,1620.78 399.10,1625.81"/>
    </edge>
    <edge id=":13398781632_3" function="internal">
        <lane id=":13398781632_3_0" index="0" allow="pedestrian delivery bicycle" speed="3.65" length="1.44" shape="398.49,1620.78 399.44,1621.87"/>
    </edge>
    <edge id=":13398781632_5" function="internal">
        <lane id=":13398781632_5_0" index="0" allow="pedestrian delivery bicycle" speed="3.65" length="3.23" shape="399.44,1621.87 400.29,1622.15 401.03,1621.65 401.66,1620.35"/>
    </edge>
    <edge id=":2050786070_0" function="internal">
        <lane id=":2050786070_0_0" index="0" allow="rail" speed="44.44" length="5.04" shape="376.23,1587.99 375.81,1582.97"/>
    </edge>
    <edge id=":279052361_0" function="internal">
        <lane id=":279052361_0_0" index="0" allow="rail" speed="44.44" length="0.30" shape="381.75,1901.57 381.75,1901.27"/>
    </edge>
    <edge id=":279052633_0" function="internal">
        <lane id=":279052633_0_0" index="0" disallow="tram rail_urban rail rail_electric rail_fast ship container cable_car subway aircraft wheelchair scooter drone" speed="6.07" length="8.31" shape="746.62,1416.11 746.95,1413.83 746.44,1412.05 745.09,1410.79 742.90,1410.05"/>
    </edge>
    <edge id=":279052633_1" function="internal">
        <lane id=":279052633_1_0" index="0" disallow="tram rail_urban rail rail_electric rail_fast ship container cable_car subway aircraft wheelchair scooter drone" speed="3.90" length="2.77" shape="742.31,1413.19 743.04,1413.44 743.49,1413.86 743.66,1414.45 743.55,1415.21"/>
    </edge>
    <edge id=":279052647_0" function="internal">
        <lane id=":279052647_0_0" index="0" allow="pedestrian delivery bicycle" speed="5.56" length="7.74" shape="404.72,1585.90 403.38,1585.74 402.07,1584.84 400.78,1583.19 399.51,1580.79"/>
    </edge>
    <edge id=":279052647_1" function="internal">
        <lane id=":279052647_1_0" index="0" allow="pedestrian delivery bicycle" speed="5.56" length="8.49" shape="404.72,1585.90 402.23,1586.29 400.52,1586.77 399.06,1587.71 397.38,1589.51"/>
    </edge>
    <edge id=":279052647_2" function="internal">
        <lane id=":279052647_2_0" index="0" allow="pedestrian delivery bicycle" speed="3.65" length="4.67" shape="404.72,1585.90 403.66,1586.88 403.39,1587.73 403.91,1588.46 405.22,1589.06"/>
    </edge>
    <edge id=":279052647_3" function="internal">
        <lane id=":279052647_3_0" index="0" allow="pedestrian delivery bicycle" speed="5.56" length="6.57" shape="399.57,1591.89 400.87,1590.49 401.98,1589.75 403.31,1589.37 405.22,1589.06"/>
    </edge>
    <edge id=":279052647_4" function="internal">
        <lane id=":279052647_4_0" index="0" allow="pedestrian delivery bicycle" speed="5.56" length="11.69" shape="399.57,1591.89 400.78,1589.74 401.17,1587.17 400.75,1584.19 399.51,1580.79"/>
    </edge>
    <edge id=":279052647_5" function="internal">
        <lane id=":279052647_5_0" index="0" allow="pedestrian delivery bicycle" speed="3.66" length="4.71" shape="399.57,1591.89 399.91,1590.47 399.66,1589.61 398.82,1589.29 397.38,1589.51"/>
    </edge>
    <edge id=":279052647_6" function="internal">
        <lane id=":279052647_6_0" index="0" allow="pedestrian delivery bicycle" speed="5.56" length="7.76" shape="396.60,1582.12 397.57,1584.60 398.02,1586.66 397.96,1588.30 397.38,1589.51"/>
    </edge>
    <edge id=":279052647_7" function="internal">
        <lane id=":279052647_7_0" index="0" allow="pedestrian delivery bicycle" speed="5.56" length="11.90" shape="396.60,1582.12 398.46,1585.46 400.52,1587.73 402.77,1588.93 405.22,1589.06"/>
    </edge>
    <edge id=":279052647_8" function="internal">
        <lane id=":279052647_8_0" index="0" allow="pedestrian delivery bicycle" speed="3.65" length="4.67" shape="396.60,1582.12 397.82,1582.88 398.72,1582.91 399.28,1582.21 399.51,1580.79"/>
    </edge>
    <edge id=":279052662_0" function="internal">
        <lane id=":279052662_0_0" index="0" disallow="tram rail_urban rail rail_electric rail_fast ship container cable_car subway aircraft wheelchair scooter drone" speed="13.89" length="9.48" shape="456.08,1704.79 454.86,1695.38"/>
        <lane id=":279052662_0_1" index="1" disallow="tram rail_urban rail rail_electric rail_fast ship container cable_car subway aircraft wheelchair scooter drone" speed="13.89" length="9.48" shape="452.91,1705.19 451.69,1695.81"/>
    </edge>
    <edge id=":279052662_2" function="internal">
        <lane id=":279052662_2_0" index="0" allow="pedestrian delivery bicycle" speed="7.63" length="2.86" shape="452.91,1705.19 451.96,1702.49"/>
    </edge>
    <edge id=":279052662_9" function="internal">
        <lane id=":279052662_9_0" index="0" allow="pedestrian delivery bicycle" speed="7.63" length="10.08" shape="451.96,1702.49 449.94,1700.75 446.82,1699.98 442.63,1700.16"/>
    </edge>
    <edge id=":279052662_3" function="internal">
        <lane id=":279052662_3_0" index="0" allow="pedestrian delivery bicycle" speed="5.03" length="5.02" shape="443.07,1703.33 444.45,1703.33 445.49,1703.78 446.19,1704.66 446.56,1705.99"/>
    </edge>
    <edge id=":279052662_4" function="internal">
        <lane id=":279052662_4_0" index="0" allow="pedestrian delivery bicycle" speed="7.66" length="12.86" shape="443.07,1703.33 447.15,1702.36 449.95,1700.79 451.46,1698.60 451.69,1695.81"/>
    </edge>
    <edge id=":279052662_5" function="internal">
        <lane id=":279052662_5_0" index="0" allow="pedestrian delivery bicycle" speed="3.65" length="4.67" shape="443.07,1703.33 444.15,1702.37 444.44,1701.52 443.93,1700.79 442.63,1700.16"/>
    </edge>
    <edge id=":279052662_6" function="internal">
        <lane id=":279052662_6_0" index="0" allow="pedestrian delivery bicycle" speed="5.07" length="5.04" shape="445.34,1696.66 445.33,1698.03 444.87,1699.07 443.97,1699.78 442.63,1700.16"/>
    </edge>
    <edge id=":279052662_7" function="internal">
        <lane id=":279052662_7_0" index="0" disallow="tram rail_urban rail rail_electric rail_fast ship container cable_car subway aircraft wheelchair scooter drone" speed="13.89" length="9.43" shape="445.34,1696.66 446.56,1705.99"/>
        <lane id=":279052662_7_1" index="1" disallow="tram rail_urban rail rail_electric rail_fast ship container cable_car subway aircraft wheelchair scooter drone" speed="13.89" length="9.43" shape="448.51,1696.23 449.73,1705.59"/>
    </edge>
    <edge id=":279053217_0" function="internal">
        <lane id=":279053217_0_0" index="0" disallow="tram rail_urban rail rail_electric rail_fast ship container cable_car subway aircraft wheelchair scooter drone" speed="5.78" length="9.15" shape="558.81,1955.89 557.69,1958.34 556.19,1959.48 554.31,1959.32 552.05,1957.85"/>
    </edge>
    <edge id=":279053217_1" function="internal">
        <lane id=":279053217_1_0" index="0" disallow="tram rail_urban rail rail_electric rail_fast ship container cable_car subway aircraft wheelchair scooter drone" speed="13.89" length="15.07" shape="558.81,1955.89 554.41,1970.27"/>
        <lane id=":279053217_1_1" index="1" disallow="tram rail_urban rail rail_electric rail_fast ship container cable_car subway aircraft wheelchair scooter drone" speed="13.89" length="15.07" shape="561.87,1956.81 557.46,1971.24"/>
    </edge>
    <edge id=":279053217_3" function="internal">
        <lane id=":279053217_3_0" index="0" disallow="tram rail_urban rail rail_electric rail_fast ship container cable_car subway aircraft wheelchair scooter drone" speed="3.65" length="1.44" shape="561.87,1956.81 562.29,1958.18"/>
    </edge>
    <edge id=":279053217_11" function="internal">
        <lane id=":279053217_11_0" index="0" disallow="tram rail_urban rail rail_electric rail_fast ship container cable_car subway aircraft wheelchair scooter drone" speed="3.65" length="3.23" shape="562.29,1958.18 562.94,1958.80 563.83,1958.64 564.94,1957.72"/>
    </edge>
    <edge id=":279053217_4" function="internal">
        <lane id=":279053217_4_0" index="0" disallow="tram rail_urban rail rail_electric rail_fast ship container cable_car subway aircraft wheelchair scooter drone" speed="13.89" length="15.18" shape="563.56,1973.18 568.00,1958.64"/>
        <lane id=":279053217_4_1" index="1" disallow="tram rail_urban rail rail_electric rail_fast ship container cable_car subway aircraft wheelchair scooter drone" speed="13.89" length="15.18" shape="560.51,1972.21 564.94,1957.72"/>
    </edge>
    <edge id=":279053217_6" function="internal">
        <lane id=":279053217_6_0" index="0" disallow="tram rail_urban rail rail_electric rail_fast ship container cable_car subway aircraft wheelchair scooter drone" speed="10.52" length="2.83" shape="560.51,1972.21 560.63,1969.39"/>
    </edge>
    <edge id=":279053217_7" function="internal">
        <lane id=":279053217_7_0" index="0" disallow="tram rail_urban rail rail_electric rail_fast ship container cable_car subway aircraft wheelchair scooter drone" speed="3.65" length="1.44" shape="560.51,1972.21 560.11,1970.83"/>
    </edge>
    <edge id=":279053217_12" function="internal">
        <lane id=":279053217_12_0" index="0" disallow="tram rail_urban rail rail_electric rail_fast ship container cable_car subway aircraft wheelchair scooter drone" speed="10.52" length="14.61" shape="560.63,1969.39 560.64,1969.25 559.27,1965.87 556.41,1962.07 552.05,1957.85"/>
    </edge>
    <edge id=":279053217_13" function="internal">
        <lane id=":279053217_13_0" index="0" disallow="tram rail_urban rail rail_electric rail_fast ship container cable_car subway aircraft wheelchair scooter drone" speed="3.65" length="3.23" shape="560.11,1970.83 559.47,1970.20 558.59,1970.34 557.46,1971.24"/>
    </edge>
    <edge id=":279053217_8" function="internal">
        <lane id=":279053217_8_0" index="0" disallow="tram rail_urban rail rail_electric rail_fast ship container cable_car subway aircraft wheelchair scooter drone" speed="8.66" length="11.59" shape="549.96,1960.26 552.48,1962.84 554.06,1965.36 554.71,1967.84 554.41,1970.27"/>
    </edge>
    <edge id=":279053217_9" function="internal">
        <lane id=":279053217_9_0" index="0" disallow="tram rail_urban rail rail_electric rail_fast ship container cable_car subway aircraft wheelchair scooter drone" speed="8.18" length="19.69" shape="549.96,1960.26 555.13,1963.78 559.34,1964.52 562.61,1962.51 564.94,1957.72"/>
    </edge>
    <edge id=":279053217_10" function="internal">
        <lane id=":279053217_10_0" index="0" disallow="tram rail_urban rail rail_electric rail_fast ship container cable_car subway aircraft wheelchair scooter drone" speed="3.65" length="4.67" shape="549.96,1960.26 551.39,1960.45 552.22,1960.10 552.44,1959.24 552.05,1957.85"/>
    </edge>
    <edge id=":279053259_0" function="internal">
        <lane id=":279053259_0_0" index="0" disallow="tram rail_urban rail rail_electric rail_fast ship container cable_car subway aircraft wheelchair scooter drone" speed="6.08" length="9.07" shape="656.59,1878.97 655.62,1881.35 654.16,1882.67 652.21,1882.92 649.78,1882.10"/>
    </edge>
    <edge id=":279053259_1" function="internal">
        <lane id=":279053259_1_0" index="0" disallow="tram rail_urban rail rail_electric rail_fast ship container cable_car subway aircraft wheelchair scooter drone" speed="8.94" length="14.61" shape="656.59,1878.97 656.04,1883.13 656.62,1886.62 658.34,1889.44 661.19,1891.59"/>
    </edge>
    <edge id=":279053259_2" function="internal">
        <lane id=":279053259_2_0" index="0" disallow="tram rail_urban rail rail_electric rail_fast ship container cable_car subway aircraft wheelchair scooter drone" speed="3.65" length="4.67" shape="656.59,1878.97 657.08,1880.33 657.75,1880.91 658.63,1880.72 659.69,1879.74"/>
    </edge>
    <edge id=":279053259_3" function="internal">
        <lane id=":279053259_3_0" index="0" disallow="tram rail_urban rail rail_electric rail_fast ship container cable_car subway aircraft wheelchair scooter drone" speed="7.60" length="10.33" shape="662.70,1888.77 660.77,1887.28 659.63,1885.28 659.27,1882.77 659.69,1879.74"/>
    </edge>
    <edge id=":279053259_4" function="internal">
        <lane id=":279053259_4_0" index="0" disallow="tram rail_urban rail rail_electric rail_fast ship container cable_car subway aircraft wheelchair scooter drone" speed="13.89" length="14.54" shape="662.70,1888.77 649.78,1882.10"/>
    </edge>
    <edge id=":279053259_5" function="internal">
        <lane id=":279053259_5_0" index="0" disallow="tram rail_urban rail rail_electric rail_fast ship container cable_car subway aircraft wheelchair scooter drone" speed="3.65" length="1.44" shape="662.70,1888.77 661.26,1888.91"/>
    </edge>
    <edge id=":279053259_9" function="internal">
        <lane id=":279053259_9_0" index="0" disallow="tram rail_urban rail rail_electric rail_fast ship container cable_car subway aircraft wheelchair scooter drone" speed="3.65" length="3.23" shape="661.26,1888.91 660.53,1889.43 660.51,1890.32 661.19,1891.59"/>
    </edge>
    <edge id=":279053259_6" function="internal">
        <lane id=":279053259_6_0" index="0" disallow="tram rail_urban rail rail_electric rail_fast ship container cable_car subway aircraft wheelchair scooter drone" speed="13.89" length="14.47" shape="648.34,1884.96 661.19,1891.59"/>
    </edge>
    <edge id=":279053259_7" function="internal">
        <lane id=":279053259_7_0" index="0" disallow="tram rail_urban rail rail_electric rail_fast ship container cable_car subway aircraft wheelchair scooter drone" speed="7.66" length="4.29" shape="648.34,1884.96 652.40,1886.32"/>
    </edge>
    <edge id=":279053259_8" function="internal">
        <lane id=":279053259_8_0" index="0" disallow="tram rail_urban rail rail_electric rail_fast ship container cable_car subway aircraft wheelchair scooter drone" speed="3.65" length="1.44" shape="648.34,1884.96 649.77,1884.78"/>
    </edge>
    <edge id=":279053259_10" function="internal">
        <lane id=":279053259_10_0" index="0" disallow="tram rail_urban rail rail_electric rail_fast ship container cable_car subway aircraft wheelchair scooter drone" speed="7.66" length="10.83" shape="652.40,1886.32 655.65,1885.91 658.08,1883.71 659.69,1879.74"/>
    </edge>
    <edge id=":279053259_11" function="internal">
        <lane id=":279053259_11_0" index="0" disallow="tram rail_urban rail rail_electric rail_fast ship container cable_car subway aircraft wheelchair scooter drone" speed="3.65" length="3.23" shape="649.77,1884.78 650.49,1884.25 650.49,1883.35 649.78,1882.10"/>
    </edge>
    <edge id=":279053268_0" function="internal">
        <lane id=":279053268_0_0" index="0" disallow="tram rail_urban rail rail_electric rail_fast ship container cable_car subway aircraft wheelchair scooter drone" speed="22.22" length="14.65" shape="589.05,1846.70 585.95,1861.02"/>
    </edge>
    <edge id=":279053268_1" function="internal">
        <lane id=":279053268_1_0" index="0" disallow="tram rail_urban rail rail_electric rail_fast ship container cable_car subway aircraft wheelchair scooter drone" speed="8.99" length="3.76" shape="589.05,1846.70 588.85,1850.27 588.91,1850.45"/>
    </edge>
    <edge id=":279053268_2" function="internal">
        <lane id=":279053268_2_0" index="0" disallow="tram rail_urban rail rail_electric rail_fast ship container cable_car subway aircraft wheelchair scooter drone" speed="3.65" length="1.44" shape="589.05,1846.70 589.58,1848.04"/>
    </edge>
    <edge id=":279053268_9" function="internal">
        <lane id=":279053268_9_0" index="0" disallow="tram rail_urban rail rail_electric rail_fast ship container cable_car subway aircraft wheelchair scooter drone" speed="8.99" length="10.97" shape="588.91,1850.45 589.89,1853.42 592.20,1856.15 595.77,1858.47"/>
    </edge>
    <edge id=":279053268_10" function="internal">
        <lane id=":279053268_10_0" index="0" disallow="tram rail_urban rail rail_electric rail_fast ship container cable_car subway aircraft wheelchair scooter drone" speed="3.65" length="3.23" shape="589.58,1848.04 590.27,1848.61 591.14,1848.39 592.18,1847.39"/>
    </edge>
    <edge id=":279053268_3" function="internal">
        <lane id=":279053268_3_0" index="0" disallow="tram rail_urban rail rail_electric rail_fast ship container cable_car subway aircraft wheelchair scooter drone" speed="7.66" length="10.46" shape="597.21,1855.62 594.58,1853.94 592.87,1852.01 592.07,1849.83 592.18,1847.39"/>
    </edge>
    <edge id=":279053268_4" function="internal">
        <lane id=":279053268_4_0" index="0" disallow="tram rail_urban rail rail_electric rail_fast ship container cable_car subway aircraft wheelchair scooter drone" speed="7.62" length="15.27" shape="597.21,1855.62 593.08,1854.23 589.83,1854.67 587.45,1856.93 585.95,1861.02"/>
    </edge>
    <edge id=":279053268_5" function="internal">
        <lane id=":279053268_5_0" index="0" disallow="tram rail_urban rail rail_electric rail_fast ship container cable_car subway aircraft wheelchair scooter drone" speed="3.65" length="4.67" shape="597.21,1855.62 595.78,1855.79 595.06,1856.33 595.06,1857.22 595.77,1858.47"/>
    </edge>
    <edge id=":279053268_6" function="internal">
        <lane id=":279053268_6_0" index="0" disallow="tram rail_urban rail rail_electric rail_fast ship container cable_car subway aircraft wheelchair scooter drone" speed="6.02" length="9.07" shape="589.08,1861.68 589.97,1859.25 591.38,1857.91 593.32,1857.65 595.77,1858.47"/>
    </edge>
    <edge id=":279053268_7" function="internal">
        <lane id=":279053268_7_0" index="0" disallow="tram rail_urban rail rail_electric rail_fast ship container cable_car subway aircraft wheelchair scooter drone" speed="22.22" length="14.63" shape="589.08,1861.68 592.18,1847.39"/>
    </edge>
    <edge id=":279053268_8" function="internal">
        <lane id=":279053268_8_0" index="0" disallow="tram rail_urban rail rail_electric rail_fast ship container cable_car subway aircraft wheelchair scooter drone" speed="3.65" length="1.44" shape="589.08,1861.68 588.55,1860.34"/>
    </edge>
    <edge id=":279053268_11" function="internal">
        <lane id=":279053268_11_0" index="0" disallow="tram rail_urban rail rail_electric rail_fast ship container cable_car subway aircraft wheelchair scooter drone" speed="3.65" length="3.23" shape="588.55,1860.34 587.85,1859.79 586.98,1860.01 585.95,1861.02"/>
    </edge>
    <edge id=":279053285_0" function="internal">
        <lane id=":279053285_0_0" index="0" disallow="tram rail_urban rail rail_electric rail_fast ship container cable_car subway aircraft wheelchair scooter drone" speed="3.65" length="4.67" shape="877.89,1928.23 878.59,1926.98 878.58,1926.08 877.86,1925.55 876.43,1925.39"/>
    </edge>
    <edge id=":279053322_0" function="internal">
        <lane id=":279053322_0_0" index="0" disallow="tram rail_urban rail rail_electric rail_fast ship container cable_car subway aircraft wheelchair scooter drone" speed="8.22" length="10.97" shape="457.56,1663.44 454.37,1662.51 451.97,1661.13 450.37,1659.29 449.56,1656.99"/>
    </edge>
    <edge id=":279053322_1" function="internal">
        <lane id=":279053322_1_0" index="0" disallow="tram rail_urban rail rail_electric rail_fast ship container cable_car subway aircraft wheelchair scooter drone" speed="8.25" length="18.92" shape="457.56,1663.44 451.61,1662.99 447.59,1664.34 445.49,1667.48 445.32,1672.42"/>
    </edge>
    <edge id=":279053322_2" function="internal">
        <lane id=":279053322_2_0" index="0" disallow="tram rail_urban rail rail_electric rail_fast ship container cable_car subway aircraft wheelchair scooter drone" speed="3.65" length="4.67" shape="457.56,1663.44 456.23,1664.00 455.68,1664.71 455.92,1665.57 456.94,1666.58"/>
    </edge>
    <edge id=":279053322_3" function="internal">
        <lane id=":279053322_3_0" index="0" disallow="tram rail_urban rail rail_electric rail_fast ship container cable_car subway aircraft wheelchair scooter drone" speed="5.92" length="9.10" shape="451.66,1671.56 451.68,1668.94 452.56,1667.23 454.32,1666.45 456.94,1666.58"/>
    </edge>
    <edge id=":279053322_4" function="internal">
        <lane id=":279053322_4_0" index="0" disallow="tram rail_urban rail rail_electric rail_fast ship container cable_car subway aircraft wheelchair scooter drone" speed="13.89" length="14.68" shape="451.66,1671.56 449.56,1656.99"/>
        <lane id=":279053322_4_1" index="1" disallow="tram rail_urban rail rail_electric rail_fast ship container cable_car subway aircraft wheelchair scooter drone" speed="13.89" length="14.68" shape="448.49,1671.99 446.40,1657.50"/>
    </edge>
    <edge id=":279053322_6" function="internal">
        <lane id=":279053322_6_0" index="0" disallow="tram rail_urban rail rail_electric rail_fast ship container cable_car subway aircraft wheelchair scooter drone" speed="3.65" length="1.44" shape="448.49,1671.99 447.53,1670.91"/>
    </edge>
    <edge id=":279053322_11" function="internal">
        <lane id=":279053322_11_0" index="0" disallow="tram rail_urban rail rail_electric rail_fast ship container cable_car subway aircraft wheelchair scooter drone" speed="3.65" length="3.23" shape="447.53,1670.91 446.69,1670.62 445.95,1671.12 445.32,1672.42"/>
    </edge>
    <edge id=":279053322_7" function="internal">