<?xml version="1.0" encoding="UTF-8"?>

<routes xmlns:xsi="http://www.w3.org/2001/XMLSchema-instance" xsi:noNamespaceSchemaLocation="http://sumo.dlr.de/xsd/routes_file.xsd">
    <!--
        Data-informed Route 128 disruption context:
        route_id=128-202, service_mode=Bus, evidence_date=2026-05-20.
        Evidence: 367 records, 30 unique trips, avg delay 9.57 min,
        avg absolute delay 11.80 min, max delay 39.97 min,
        95 Severe records, and severe recommendation:
        Deploy standby bus or supervisor review.
        Weather context: light rain/precipitation and moderate wind.
        These values inform the disruption pressure but do not calibrate real traffic volumes.
    -->
    <vType id="osm_bus_route_128" vClass="bus" length="12.0" accel="0.75" decel="4.0" sigma="0.85" maxSpeed="6.5" color="220,80,40"/>
    <vType id="osm_background_car" vClass="passenger" length="5.0" accel="1.9" decel="4.0" sigma="0.85" maxSpeed="7.0" color="120,120,120"/>

    <route id="osm_route128_kmc_to_north" edges="-243689702#6 -243689702#5 -243689702#4 -243689702#3 -243689702#2 -243689702#1 -243689702#0"/>
    <route id="osm_route128_north_to_kmc" edges="243689702#0 243689702#1 243689702#2 243689702#3 243689702#4 243689702#5 243689702#6"/>

    <flow id="osm_disruption_cars_kmc_to_north" type="osm_background_car" route="osm_route128_kmc_to_north" begin="0" end="1800" period="14" departLane="best"/>
    <flow id="osm_disruption_cars_north_to_kmc" type="osm_background_car" route="osm_route128_north_to_kmc" begin="0" end="1800" period="17" departLane="best"/>

    <flow id="osm_disruption_bus_kmc_to_north" type="osm_bus_route_128" route="osm_route128_kmc_to_north" begin="0" end="1800" period="300" departLane="best"/>
    <flow id="osm_disruption_bus_north_to_kmc" type="osm_bus_route_128" route="osm_route128_north_to_kmc" begin="150" end="1800" period="300" departLane="best"/>
</routes>
