<?xml version="1.0" encoding="UTF-8"?>

<routes xmlns:xsi="http://www.w3.org/2001/XMLSchema-instance" xsi:noNamespaceSchemaLocation="http://sumo.dlr.de/xsd/routes_file.xsd">
    <!--
        Data-informed Route 128 scenario context:
        route_id=128-202, service_mode=Bus.
        Final model-baseline evidence period: 2026-05-09 to 2026-06-04.
        Baseline represents normal road pressure for comparison, not observed disruption.
    -->
    <vType id="osm_bus_route_128" vClass="bus" length="12.0" accel="1.0" decel="4.0" sigma="0.5" maxSpeed="12.0" color="0,96,170"/>
    <vType id="osm_background_car" vClass="passenger" length="5.0" accel="2.6" decel="4.5" sigma="0.5" maxSpeed="13.9" color="160,160,160"/>

    <route id="osm_route128_kmc_to_north" edges="-243689702#6 -243689702#5 -243689702#4 -243689702#3 -243689702#2 -243689702#1 -243689702#0"/>
    <route id="osm_route128_north_to_kmc" edges="243689702#0 243689702#1 243689702#2 243689702#3 243689702#4 243689702#5 243689702#6"/>

    <flow id="osm_baseline_cars_kmc_to_north" type="osm_background_car" route="osm_route128_kmc_to_north" begin="0" end="1800" period="50" departLane="best"/>
    <flow id="osm_baseline_cars_north_to_kmc" type="osm_background_car" route="osm_route128_north_to_kmc" begin="0" end="1800" period="60" departLane="best"/>

    <flow id="osm_baseline_bus_kmc_to_north" type="osm_bus_route_128" route="osm_route128_kmc_to_north" begin="0" end="1800" period="300" departLane="best"/>
    <flow id="osm_baseline_bus_north_to_kmc" type="osm_bus_route_128" route="osm_route128_north_to_kmc" begin="150" end="1800" period="300" departLane="best"/>
</routes>
