<?xml version="1.0" encoding="UTF-8"?>

<routes xmlns:xsi="http://www.w3.org/2001/XMLSchema-instance" xsi:noNamespaceSchemaLocation="http://sumo.dlr.de/xsd/routes_file.xsd">
    <!--
        Data-informed Route 128 intervention context:
        route_id=128-202, service_mode=Bus.
        Final model-baseline evidence period: 2026-05-09 to 2026-06-04.
        Intervention is based on Decision Engine severe recommendation:
        Deploy standby bus or supervisor review, with supporting actions:
        monitor route conditions and adjust service headway.
        This scenario represents partial operational recovery, not real-world proof.
    -->
    <vType id="osm_bus_route_128" vClass="bus" length="12.0" accel="1.0" decel="4.0" sigma="0.5" maxSpeed="10.5" color="40,150,90"/>
    <vType id="osm_background_car" vClass="passenger" length="5.0" accel="2.3" decel="4.2" sigma="0.6" maxSpeed="11.0" color="145,145,145"/>

    <route id="osm_route128_kmc_to_north" edges="-243689702#6 -243689702#5 -243689702#4 -243689702#3 -243689702#2 -243689702#1 -243689702#0"/>
    <route id="osm_route128_north_to_kmc" edges="243689702#0 243689702#1 243689702#2 243689702#3 243689702#4 243689702#5 243689702#6"/>

    <flow id="osm_intervention_cars_kmc_to_north" type="osm_background_car" route="osm_route128_kmc_to_north" begin="0" end="1800" period="30" departLane="best"/>
    <flow id="osm_intervention_cars_north_to_kmc" type="osm_background_car" route="osm_route128_north_to_kmc" begin="0" end="1800" period="36" departLane="best"/>

    <flow id="osm_intervention_bus_kmc_to_north" type="osm_bus_route_128" route="osm_route128_kmc_to_north" begin="0" end="1800" period="240" departLane="best"/>
    <flow id="osm_intervention_bus_north_to_kmc" type="osm_bus_route_128" route="osm_route128_north_to_kmc" begin="120" end="1800" period="240" departLane="best"/>
</routes>
