<?xml version="1.0" encoding="UTF-8"?>

<routes xmlns:xsi="http://www.w3.org/2001/XMLSchema-instance" xsi:noNamespaceSchemaLocation="http://sumo.dlr.de/xsd/routes_file.xsd">
    <vType id="bus_route_128" vClass="bus" length="12.0" accel="0.8" decel="4.0" sigma="0.8" maxSpeed="8.0" color="220,80,40"/>
    <vType id="background_car" vClass="passenger" length="5.0" accel="2.0" decel="4.0" sigma="0.8" maxSpeed="8.0" color="120,120,120"/>

    <route id="route_128_hc_to_kmc" edges="hc_to_j1 j1_to_j2 j2_to_j3 j3_to_kmc"/>
    <route id="route_128_kmc_to_hc" edges="kmc_to_j3 j3_to_j2 j2_to_j1 j1_to_hc"/>

    <flow id="disruption_cars_hc_to_kmc" type="background_car" route="route_128_hc_to_kmc" begin="0" end="3600" period="18"/>
    <flow id="disruption_cars_kmc_to_hc" type="background_car" route="route_128_kmc_to_hc" begin="0" end="3600" period="22"/>

    <flow id="disruption_bus_hc_to_kmc" type="bus_route_128" route="route_128_hc_to_kmc" begin="0" end="3600" period="300" departLane="best"/>
    <flow id="disruption_bus_kmc_to_hc" type="bus_route_128" route="route_128_kmc_to_hc" begin="150" end="3600" period="300" departLane="best"/>
</routes>
